xflr5 v6.57

test project
T1-10.0 m/s-Panel-Inviscid
QInf  =   10.000000 m/s
Alpha =   10.000000
Beta  =    0.000°
Phi   =    0.000°
Ctrl  =    0.000
CL    =    1.204817
Cy    =    0.000000
Cd    =    0.051295     ICd   =    0.051295     PCd   =    0.000000
Cl   = 1.12859e-10
Cm   =    -1.46199
ICn   =   -0.000000     PCn   =   -0.000000 
XCP   =    3.873666     YCP   =   -0.000000     ZCP   =    0.303246  
XNP   =    0.000000
Bending = 13462.030689

Main Wing
  y-span        Chord      Ai         Cl        PCd          ICd        CmGeom    CmAirf@chord/4    XTrtop    XTrBot      XCP       BM
  -12.7881     1.3654    -8.014    0.372901    0.000000    0.052500   -2.314532    0.008862     0.0000    0.0000    0.2262    0.0000
  -12.7008     1.3869    -5.971    0.615929    0.000000    0.064402   -3.374716   -0.017514     0.0000    0.0000    0.2719    0.1218
  -12.5267     1.4299    -4.790    0.832529    0.000000    0.069714   -4.171766   -0.016871     0.0000    0.0000    0.2646    1.5842
  -12.2670     1.4940    -3.872    1.000338    0.000000    0.067647   -4.713018   -0.028952     0.0000    0.0000    0.2734    7.9696
  -11.9235     1.5787    -3.171    1.120921    0.000000    0.062029   -4.905254   -0.041474     0.0000    0.0000    0.2815   26.1219
  -11.4986     1.6835    -2.650    1.201780    0.000000    0.055525   -4.804728   -0.050668     0.0000    0.0000    0.2866   66.6918
  -10.9951     1.8077    -2.295    1.252398    0.000000    0.050090   -4.507026   -0.056357     0.0000    0.0000    0.2893   144.4061
  -10.4165     1.9504    -2.087    1.281249    0.000000    0.046569   -4.097925   -0.059536     0.0000    0.0000    0.2907   278.1447
   -9.7668     2.1107    -1.994    1.294554    0.000000    0.044949   -3.639641   -0.061169     0.0000    0.0000    0.2914   490.8514
   -9.0503     2.2875    -1.986    1.296382    0.000000    0.044804   -3.172299   -0.061879     0.0000    0.0000    0.2918   809.2454
   -8.2720     2.4794    -2.037    1.289312    0.000000    0.045707   -2.720255   -0.062078     0.0000    0.0000    0.2922   1263.2675
   -7.4372     2.6854    -2.130    1.274869    0.000000    0.047243   -2.297197   -0.061992     0.0000    0.0000    0.2927   1885.2215
   -6.5516     2.9038    -2.251    1.253915    0.000000    0.049082   -1.910172   -0.061761     0.0000    0.0000    0.2933   2708.5781
   -5.6213     3.1333    -2.388    1.226835    0.000000    0.050928   -1.561938   -0.061506     0.0000    0.0000    0.2942   3766.4524
   -4.6526     3.3723    -2.530    1.193647    0.000000    0.052481   -1.252808   -0.061401     0.0000    0.0000    0.2955   5089.7849
   -3.6520     3.6191    -2.664    1.154019    0.000000    0.053355   -0.981892   -0.061761     0.0000    0.0000    0.2976   6705.2920
   -2.6266     3.8721    -2.764    1.107256    0.000000    0.052996   -0.748053   -0.063348     0.0000    0.0000    0.3015   8633.2618
   -1.5831     4.1295    -2.777    1.051891    0.000000    0.050265   -0.551080   -0.068011     0.0000    0.0000    0.3091   10885.2995
   -0.5289     4.3895    -2.551    0.980212    0.000000    0.041422   -0.394355   -0.082247     0.0000    0.0000    0.3287   13462.0307
    0.5289     4.3895    -2.551    0.980212    0.000000    0.041422   -0.394355   -0.082247     0.0000    0.0000    0.3287   13462.0307
    1.5831     4.1295    -2.777    1.051891    0.000000    0.050265   -0.551080   -0.068011     0.0000    0.0000    0.3091   10885.2995
    2.6266     3.8721    -2.764    1.107256    0.000000    0.052996   -0.748053   -0.063348     0.0000    0.0000    0.3015   8633.2618
    3.6520     3.6191    -2.664    1.154019    0.000000    0.053355   -0.981892   -0.061761     0.0000    0.0000    0.2976   6705.2920
    4.6526     3.3723    -2.530    1.193647    0.000000    0.052481   -1.252808   -0.061401     0.0000    0.0000    0.2955   5089.7849
    5.6213     3.1333    -2.388    1.226835    0.000000    0.050928   -1.561938   -0.061506     0.0000    0.0000    0.2942   3766.4524
    6.5516     2.9038    -2.251    1.253915    0.000000    0.049082   -1.910172   -0.061761     0.0000    0.0000    0.2933   2708.5781
    7.4372     2.6854    -2.130    1.274869    0.000000    0.047243   -2.297197   -0.061992     0.0000    0.0000    0.2927   1885.2215
    8.2720     2.4794    -2.037    1.289312    0.000000    0.045707   -2.720255   -0.062078     0.0000    0.0000    0.2922   1263.2675
    9.0503     2.2875    -1.986    1.296382    0.000000    0.044804   -3.172299   -0.061879     0.0000    0.0000    0.2918   809.2454
    9.7668     2.1107    -1.994    1.294554    0.000000    0.044949   -3.639641   -0.061169     0.0000    0.0000    0.2914   490.8514
   10.4165     1.9504    -2.087    1.281249    0.000000    0.046569   -4.097925   -0.059536     0.0000    0.0000    0.2907   278.1447
   10.9951     1.8077    -2.295    1.252398    0.000000    0.050090   -4.507026   -0.056357     0.0000    0.0000    0.2893   144.4061
   11.4986     1.6835    -2.650    1.201780    0.000000    0.055525   -4.804728   -0.050668     0.0000    0.0000    0.2866   66.6918
   11.9235     1.5787    -3.171    1.120921    0.000000    0.062029   -4.905254   -0.041474     0.0000    0.0000    0.2815   26.1219
   12.2670     1.4940    -3.872    1.000338    0.000000    0.067647   -4.713018   -0.028952     0.0000    0.0000    0.2734    7.9696
   12.5267     1.4299    -4.790    0.832529    0.000000    0.069714   -4.171766   -0.016871     0.0000    0.0000    0.2646    1.5842
   12.7008     1.3869    -5.971    0.615929    0.000000    0.064402   -3.374716   -0.017514     0.0000    0.0000    0.2719    0.1218
   12.7881     1.3654    -8.014    0.372901    0.000000    0.052500   -2.314532    0.008862     0.0000    0.0000    0.2262    0.0000


Main Wing Cp Coefficients
 Panel     CtrlPt.x        CtrlPt.y        CtrlPt.z       Nx      Ny       Nz        Area       Cp
Main WingCp Coefficients
Strip 1
  13       8.024e+00      -1.278e+01       4.728e-01           0.026          -0.043          -0.999       8.794e-04         -1.1819
  14       7.985e+00      -1.278e+01       4.755e-01          -0.098          -0.077          -0.992       2.569e-03         -1.1445
  15       7.909e+00      -1.278e+01       4.767e-01           0.036          -0.038          -0.999       4.094e-03         -0.9934
  16       7.800e+00      -1.278e+01       4.651e-01           0.157           0.002          -0.988       5.463e-03         -0.7206
  17       7.666e+00      -1.278e+01       4.395e-01           0.212           0.022          -0.977       6.538e-03         -0.4744
  18       7.513e+00      -1.278e+01       4.095e-01           0.174           0.010          -0.985       7.113e-03         -0.3493
  19       7.351e+00      -1.278e+01       3.877e-01           0.093          -0.020          -0.995       7.239e-03         -0.2775
  20       7.189e+00      -1.278e+01       3.785e-01           0.019          -0.048          -0.999       6.999e-03         -0.2155
  21       7.036e+00      -1.278e+01       3.802e-01          -0.044          -0.074          -0.996       6.391e-03         -0.1546
  22       6.902e+00      -1.278e+01       3.898e-01          -0.103          -0.100          -0.990       5.433e-03         -0.0750
  23       6.794e+00      -1.278e+01       4.050e-01          -0.185          -0.138          -0.973       4.186e-03          0.0719
  24       6.718e+00      -1.278e+01       4.258e-01          -0.370          -0.227          -0.901       2.811e-03          0.3357
  25       6.679e+00      -1.278e+01       4.554e-01          -0.795          -0.429          -0.428       1.956e-03          0.0571
  26       6.679e+00      -1.278e+01       4.909e-01          -0.794          -0.399           0.459       1.955e-03         -1.8465
  27       6.718e+00      -1.278e+01       5.205e-01          -0.369          -0.167           0.915       2.812e-03         -2.3595
  28       6.794e+00      -1.278e+01       5.408e-01          -0.177          -0.067           0.982       4.177e-03         -1.2167
  29       6.902e+00      -1.278e+01       5.553e-01          -0.099          -0.027           0.995       5.424e-03         -0.7884
  30       7.036e+00      -1.278e+01       5.651e-01          -0.050          -0.002           0.999       6.384e-03         -0.6340
  31       7.189e+00      -1.278e+01       5.691e-01          -0.005           0.020           1.000       6.988e-03         -0.5612
  32       7.351e+00      -1.278e+01       5.659e-01           0.044           0.042           0.998       7.204e-03         -0.5108
  33       7.514e+00      -1.278e+01       5.552e-01           0.088           0.061           0.994       7.018e-03         -0.4942
  34       7.666e+00      -1.278e+01       5.390e-01           0.125           0.076           0.989       6.431e-03         -0.5708
  35       7.801e+00      -1.278e+01       5.202e-01           0.154           0.087           0.984       5.463e-03         -0.7923
  36       7.909e+00      -1.278e+01       5.021e-01           0.178           0.096           0.979       4.166e-03         -1.1047
  37       7.985e+00      -1.278e+01       4.877e-01           0.199           0.103           0.975       2.613e-03         -1.3504
  38       8.024e+00      -1.278e+01       4.774e-01           0.403           0.157           0.902       9.457e-04         -1.1862
Strip 2
  39       8.000e+00      -1.269e+01       4.684e-01           0.025          -0.044          -0.999       2.673e-03         -0.5481
  40       7.960e+00      -1.269e+01       4.711e-01          -0.099          -0.078          -0.992       7.811e-03         -0.4457
  41       7.883e+00      -1.269e+01       4.724e-01           0.035          -0.038          -0.999       1.245e-02         -0.3398
  42       7.773e+00      -1.269e+01       4.608e-01           0.156           0.001          -0.988       1.661e-02         -0.2442
  43       7.636e+00      -1.269e+01       4.350e-01           0.211           0.021          -0.977       1.987e-02         -0.2001
  44       7.481e+00      -1.269e+01       4.047e-01           0.173           0.009          -0.985       2.162e-02         -0.2186
  45       7.316e+00      -1.270e+01       3.827e-01           0.092          -0.020          -0.996       2.201e-02         -0.2138
  46       7.152e+00      -1.270e+01       3.736e-01           0.018          -0.049          -0.999       2.128e-02         -0.1624
  47       6.997e+00      -1.270e+01       3.755e-01          -0.045          -0.074          -0.996       1.943e-02         -0.0825
  48       6.860e+00      -1.270e+01       3.854e-01          -0.104          -0.100          -0.989       1.652e-02          0.0353
  49       6.750e+00      -1.269e+01       4.010e-01          -0.186          -0.138          -0.973       1.273e-02          0.2314
  50       6.673e+00      -1.269e+01       4.221e-01          -0.371          -0.228          -0.900       8.550e-03          0.5114
  51       6.633e+00      -1.269e+01       4.523e-01          -0.795          -0.429          -0.428       5.951e-03         -0.0775
  52       6.633e+00      -1.269e+01       4.883e-01          -0.794          -0.399           0.459       5.941e-03         -2.5603
  53       6.673e+00      -1.269e+01       5.183e-01          -0.368          -0.166           0.915       8.543e-03         -3.0394
  54       6.750e+00      -1.269e+01       5.389e-01          -0.176          -0.066           0.982       1.269e-02         -1.5593
  55       6.860e+00      -1.269e+01       5.535e-01          -0.097          -0.026           0.995       1.649e-02         -0.9601
  56       6.997e+00      -1.269e+01       5.633e-01          -0.049          -0.002           0.999       1.941e-02         -0.7176
  57       7.152e+00      -1.269e+01       5.672e-01          -0.004           0.020           1.000       2.125e-02         -0.6060
  58       7.317e+00      -1.269e+01       5.638e-01           0.045           0.043           0.998       2.190e-02         -0.5337
  59       7.481e+00      -1.269e+01       5.527e-01           0.089           0.062           0.994       2.134e-02         -0.4881
  60       7.637e+00      -1.269e+01       5.361e-01           0.126           0.077           0.989       1.955e-02         -0.4938
  61       7.773e+00      -1.269e+01       5.168e-01           0.155           0.088           0.984       1.661e-02         -0.5608
  62       7.883e+00      -1.269e+01       4.983e-01           0.179           0.096           0.979       1.267e-02         -0.6460
  63       7.960e+00      -1.269e+01       4.836e-01           0.200           0.103           0.974       7.947e-03         -0.7207
  64       8.000e+00      -1.269e+01       4.731e-01           0.404           0.157           0.901       2.877e-03         -0.5052
Strip 3
  65       7.951e+00      -1.252e+01       4.596e-01           0.023          -0.044          -0.999       4.572e-03         -0.0459
  66       7.910e+00      -1.252e+01       4.625e-01          -0.102          -0.078          -0.992       1.336e-02          0.0900
  67       7.831e+00      -1.252e+01       4.640e-01           0.033          -0.039          -0.999       2.129e-02          0.1436
  68       7.718e+00      -1.252e+01       4.523e-01           0.154           0.000          -0.988       2.839e-02          0.1038
  69       7.577e+00      -1.252e+01       4.259e-01           0.209           0.021          -0.978       3.397e-02          0.0120
  70       7.417e+00      -1.252e+01       3.951e-01           0.171           0.009          -0.985       3.696e-02         -0.0880
  71       7.247e+00      -1.252e+01       3.728e-01           0.090          -0.021          -0.996       3.763e-02         -0.1171
  72       7.077e+00      -1.252e+01       3.637e-01           0.015          -0.050          -0.999       3.639e-02         -0.0629
  73       6.917e+00      -1.252e+01       3.660e-01          -0.047          -0.075          -0.996       3.324e-02          0.0477
  74       6.777e+00      -1.252e+01       3.766e-01          -0.107          -0.101          -0.989       2.827e-02          0.2125
  75       6.663e+00      -1.252e+01       3.929e-01          -0.188          -0.139          -0.972       2.179e-02          0.4456
  76       6.584e+00      -1.252e+01       4.149e-01          -0.372          -0.228          -0.900       1.464e-02          0.6837
  77       6.543e+00      -1.252e+01       4.461e-01          -0.795          -0.429          -0.428       1.019e-02         -0.2262
  78       6.543e+00      -1.252e+01       4.832e-01          -0.794          -0.399           0.459       1.015e-02         -3.1787
  79       6.584e+00      -1.252e+01       5.141e-01          -0.366          -0.165           0.916       1.459e-02         -3.6321
  80       6.663e+00      -1.252e+01       5.351e-01          -0.174          -0.065           0.983       2.170e-02         -1.9023
  81       6.777e+00      -1.252e+01       5.499e-01          -0.095          -0.025           0.995       2.819e-02         -1.1815
  82       6.917e+00      -1.251e+01       5.597e-01          -0.047          -0.001           0.999       3.319e-02         -0.8529
  83       7.077e+00      -1.251e+01       5.634e-01          -0.002           0.021           1.000       3.634e-02         -0.6778
  84       7.247e+00      -1.251e+01       5.595e-01           0.047           0.044           0.998       3.747e-02         -0.5524
  85       7.417e+00      -1.252e+01       5.477e-01           0.091           0.062           0.994       3.651e-02         -0.4391
  86       7.577e+00      -1.252e+01       5.302e-01           0.128           0.077           0.989       3.346e-02         -0.3370
  87       7.718e+00      -1.252e+01       5.100e-01           0.158           0.088           0.984       2.843e-02         -0.2548
  88       7.831e+00      -1.252e+01       4.907e-01           0.181           0.097           0.979       2.168e-02         -0.1887
  89       7.911e+00      -1.252e+01       4.753e-01           0.202           0.104           0.974       1.360e-02         -0.1677
  90       7.952e+00      -1.252e+01       4.644e-01           0.405           0.157           0.901       4.926e-03          0.0483
Strip 4
  91       7.880e+00      -1.226e+01       4.464e-01           0.020          -0.045          -0.999       6.642e-03          0.0614
  92       7.837e+00      -1.226e+01       4.496e-01          -0.105          -0.079          -0.991       1.942e-02          0.2128
  93       7.754e+00      -1.226e+01       4.514e-01           0.030          -0.040          -0.999       3.092e-02          0.2715
  94       7.635e+00      -1.226e+01       4.396e-01           0.151          -0.000          -0.988       4.122e-02          0.2218
  95       7.488e+00      -1.226e+01       4.124e-01           0.206           0.020          -0.978       4.931e-02          0.1132
  96       7.321e+00      -1.226e+01       3.807e-01           0.168           0.008          -0.986       5.365e-02         -0.0009
  97       7.144e+00      -1.226e+01       3.580e-01           0.087          -0.022          -0.996       5.464e-02         -0.0333
  98       6.966e+00      -1.226e+01       3.491e-01           0.012          -0.051          -0.999       5.287e-02          0.0302
  99       6.799e+00      -1.226e+01       3.520e-01          -0.050          -0.077          -0.996       4.830e-02          0.1565
 100       6.652e+00      -1.226e+01       3.634e-01          -0.110          -0.103          -0.989       4.109e-02          0.3309
 101       6.534e+00      -1.226e+01       3.809e-01          -0.191          -0.140          -0.971       3.169e-02          0.5546
 102       6.451e+00      -1.226e+01       4.041e-01          -0.374          -0.229          -0.898       2.131e-02          0.7254
 103       6.408e+00      -1.226e+01       4.368e-01          -0.795          -0.429          -0.428       1.483e-02         -0.4414
 104       6.408e+00      -1.226e+01       4.756e-01          -0.794          -0.399           0.459       1.472e-02         -3.6852
 105       6.451e+00      -1.226e+01       5.077e-01          -0.364          -0.164           0.917       2.117e-02         -4.0771
 106       6.534e+00      -1.226e+01       5.294e-01          -0.171          -0.064           0.983       3.149e-02         -2.1483
 107       6.652e+00      -1.226e+01       5.446e-01          -0.092          -0.024           0.995       4.093e-02         -1.3573
 108       6.799e+00      -1.226e+01       5.543e-01          -0.044           0.001           0.999       4.820e-02         -0.9895
 109       6.966e+00      -1.226e+01       5.577e-01           0.001           0.023           1.000       5.279e-02         -0.7775
 110       7.144e+00      -1.226e+01       5.530e-01           0.050           0.045           0.998       5.444e-02         -0.6136
 111       7.321e+00      -1.226e+01       5.402e-01           0.094           0.064           0.994       5.306e-02         -0.4613
 112       7.488e+00      -1.226e+01       5.214e-01           0.131           0.078           0.988       4.863e-02         -0.3214
 113       7.636e+00      -1.226e+01       4.998e-01           0.160           0.089           0.983       4.132e-02         -0.2040
 114       7.754e+00      -1.226e+01       4.793e-01           0.184           0.098           0.978       3.152e-02         -0.1074
 115       7.837e+00      -1.226e+01       4.630e-01           0.205           0.105           0.973       1.977e-02         -0.0641
 116       7.880e+00      -1.226e+01       4.515e-01           0.407           0.158           0.900       7.165e-03          0.1489
Strip 5
 117       7.784e+00      -1.192e+01       4.290e-01           0.016          -0.046          -0.999       8.940e-03          0.0979
 118       7.739e+00      -1.192e+01       4.325e-01          -0.108          -0.080          -0.991       2.616e-02          0.2586
 119       7.651e+00      -1.192e+01       4.348e-01           0.026          -0.041          -0.999       4.162e-02          0.3231
 120       7.526e+00      -1.192e+01       4.227e-01           0.148          -0.002          -0.989       5.545e-02          0.2751
 121       7.371e+00      -1.192e+01       3.946e-01           0.203           0.018          -0.979       6.631e-02          0.1671
 122       7.194e+00      -1.192e+01       3.618e-01           0.165           0.006          -0.986       7.216e-02          0.0556
 123       7.007e+00      -1.192e+01       3.384e-01           0.083          -0.024          -0.996       7.353e-02          0.0288
 124       6.819e+00      -1.192e+01       3.297e-01           0.009          -0.053          -0.999       7.116e-02          0.0979
 125       6.643e+00      -1.192e+01       3.334e-01          -0.054          -0.078          -0.995       6.504e-02          0.2269
 126       6.487e+00      -1.192e+01       3.460e-01          -0.113          -0.104          -0.988       5.535e-02          0.3981
 127       6.362e+00      -1.192e+01       3.649e-01          -0.194          -0.142          -0.971       4.270e-02          0.6101
 128       6.274e+00      -1.192e+01       3.898e-01          -0.377          -0.231          -0.897       2.874e-02          0.7285
 129       6.229e+00      -1.192e+01       4.245e-01          -0.795          -0.429          -0.428       2.001e-02         -0.6256
 130       6.229e+00      -1.191e+01       4.656e-01          -0.794          -0.399           0.458       1.977e-02         -4.0777
 131       6.274e+00      -1.191e+01       4.993e-01          -0.361          -0.163           0.918       2.844e-02         -4.4132
 132       6.362e+00      -1.191e+01       5.219e-01          -0.168          -0.062           0.984       4.236e-02         -2.3229
 133       6.488e+00      -1.191e+01       5.375e-01          -0.089          -0.022           0.996       5.507e-02         -1.4799
 134       6.643e+00      -1.191e+01       5.472e-01          -0.040           0.002           0.999       6.487e-02         -1.0899
 135       6.820e+00      -1.191e+01       5.501e-01           0.005           0.024           1.000       7.106e-02         -0.8611
 136       7.007e+00      -1.191e+01       5.445e-01           0.054           0.046           0.997       7.331e-02         -0.6782
 137       7.195e+00      -1.191e+01       5.303e-01           0.098           0.065           0.993       7.146e-02         -0.5050
 138       7.371e+00      -1.191e+01       5.097e-01           0.135           0.080           0.988       6.551e-02         -0.3444
 139       7.527e+00      -1.191e+01       4.864e-01           0.164           0.090           0.982       5.567e-02         -0.2073
 140       7.652e+00      -1.191e+01       4.642e-01           0.187           0.099           0.977       4.246e-02         -0.0946
 141       7.740e+00      -1.191e+01       4.467e-01           0.208           0.105           0.972       2.664e-02         -0.0388
 142       7.785e+00      -1.192e+01       4.343e-01           0.410           0.158           0.898       9.662e-03          0.1748
Strip 6
 143       7.667e+00      -1.149e+01       4.075e-01           0.012          -0.047          -0.999       1.152e-02          0.1141
 144       7.618e+00      -1.149e+01       4.114e-01          -0.112          -0.081          -0.990       3.372e-02          0.2808
 145       7.525e+00      -1.149e+01       4.142e-01           0.022          -0.042          -0.999       5.361e-02          0.3497
 146       7.391e+00      -1.149e+01       4.018e-01           0.144          -0.003          -0.990       7.138e-02          0.3047
 147       7.226e+00      -1.149e+01       3.726e-01           0.199           0.017          -0.980       8.534e-02          0.1998
 148       7.037e+00      -1.149e+01       3.383e-01           0.161           0.005          -0.987       9.289e-02          0.0930
 149       6.838e+00      -1.149e+01       3.142e-01           0.079          -0.025          -0.997       9.469e-02          0.0707
 150       6.638e+00      -1.149e+01       3.056e-01           0.005          -0.054          -0.999       9.168e-02          0.1421
 151       6.449e+00      -1.149e+01       3.104e-01          -0.058          -0.080          -0.995       8.383e-02          0.2703
 152       6.284e+00      -1.149e+01       3.245e-01          -0.117          -0.106          -0.987       7.136e-02          0.4379
 153       6.150e+00      -1.149e+01       3.452e-01          -0.198          -0.144          -0.970       5.509e-02          0.6414
 154       6.057e+00      -1.149e+01       3.721e-01          -0.380          -0.232          -0.896       3.711e-02          0.7221
 155       6.009e+00      -1.149e+01       4.093e-01          -0.795          -0.429          -0.429       2.584e-02         -0.7620
 156       6.009e+00      -1.149e+01       4.531e-01          -0.794          -0.399           0.458       2.542e-02         -4.3628
 157       6.057e+00      -1.149e+01       4.889e-01          -0.359          -0.161           0.919       3.656e-02         -4.6577
 158       6.150e+00      -1.149e+01       5.126e-01          -0.164          -0.060           0.985       5.451e-02         -2.4429
 159       6.284e+00      -1.149e+01       5.287e-01          -0.085          -0.020           0.996       7.091e-02         -1.5608
 160       6.450e+00      -1.149e+01       5.384e-01          -0.036           0.004           0.999       8.356e-02         -1.1551
 161       6.638e+00      -1.149e+01       5.407e-01           0.009           0.026           1.000       9.155e-02         -0.9167
 162       6.838e+00      -1.149e+01       5.340e-01           0.058           0.048           0.997       9.447e-02         -0.7242
 163       7.038e+00      -1.149e+01       5.180e-01           0.102           0.066           0.993       9.212e-02         -0.5399
 164       7.226e+00      -1.149e+01       4.953e-01           0.138           0.081           0.987       8.446e-02         -0.3674
 165       7.392e+00      -1.149e+01       4.698e-01           0.168           0.092           0.982       7.179e-02         -0.2187
 166       7.525e+00      -1.149e+01       4.456e-01           0.191           0.100           0.976       5.476e-02         -0.0963
 167       7.619e+00      -1.149e+01       4.265e-01           0.212           0.106           0.971       3.436e-02         -0.0326
 168       7.667e+00      -1.149e+01       4.131e-01           0.413           0.159           0.897       1.247e-02          0.1827
Strip 7
 169       7.527e+00      -1.099e+01       3.819e-01           0.008          -0.049          -0.999       1.441e-02          0.1226
 170       7.475e+00      -1.099e+01       3.864e-01          -0.116          -0.082          -0.990       4.222e-02          0.2935
 171       7.375e+00      -1.099e+01       3.898e-01           0.018          -0.043          -0.999       6.708e-02          0.3651
 172       7.232e+00      -1.099e+01       3.771e-01           0.140          -0.004          -0.990       8.926e-02          0.3224
 173       7.054e+00      -1.099e+01       3.464e-01           0.195           0.016          -0.981       1.067e-01          0.2201
 174       6.852e+00      -1.099e+01       3.104e-01           0.157           0.003          -0.988       1.161e-01          0.1165
 175       6.637e+00      -1.099e+01       2.854e-01           0.075          -0.027          -0.997       1.184e-01          0.0970
 176       6.422e+00      -1.099e+01       2.772e-01           0.001          -0.056          -0.998       1.147e-01          0.1694
 177       6.220e+00      -1.099e+01       2.831e-01          -0.062          -0.082          -0.995       1.050e-01          0.2967
 178       6.042e+00      -1.099e+01       2.990e-01          -0.121          -0.108          -0.987       8.937e-02          0.4617
 179       5.899e+00      -1.099e+01       3.219e-01          -0.202          -0.146          -0.969       6.903e-02          0.6595
 180       5.799e+00      -1.099e+01       3.511e-01          -0.383          -0.233          -0.894       4.655e-02          0.7155
 181       5.747e+00      -1.099e+01       3.913e-01          -0.795          -0.429          -0.429       3.242e-02         -0.8503
 182       5.747e+00      -1.099e+01       4.384e-01          -0.794          -0.399           0.458       3.173e-02         -4.5528
 183       5.799e+00      -1.099e+01       4.766e-01          -0.356          -0.160           0.921       4.565e-02         -4.8250
 184       5.899e+00      -1.099e+01       5.016e-01          -0.160          -0.058           0.985       6.814e-02         -2.5203
 185       6.043e+00      -1.098e+01       5.183e-01          -0.081          -0.018           0.997       8.869e-02         -1.6108
 186       6.221e+00      -1.098e+01       5.280e-01          -0.032           0.006           0.999       1.045e-01         -1.1943
 187       6.423e+00      -1.098e+01       5.297e-01           0.013           0.028           1.000       1.146e-01         -0.9499
 188       6.637e+00      -1.098e+01       5.215e-01           0.062           0.049           0.997       1.183e-01         -0.7519
 189       6.852e+00      -1.098e+01       5.034e-01           0.106           0.068           0.992       1.153e-01         -0.5615
 190       7.054e+00      -1.099e+01       4.782e-01           0.142           0.082           0.986       1.058e-01         -0.3823
 191       7.232e+00      -1.099e+01       4.501e-01           0.172           0.093           0.981       8.991e-02         -0.2271
 192       7.376e+00      -1.099e+01       4.235e-01           0.195           0.101           0.976       6.860e-02         -0.0990
 193       7.476e+00      -1.099e+01       4.026e-01           0.216           0.107           0.970       4.304e-02         -0.0304
 194       7.528e+00      -1.099e+01       3.880e-01           0.416           0.160           0.895       1.564e-02          0.1863
Strip 8
 195       7.367e+00      -1.041e+01       3.526e-01           0.004          -0.050          -0.999       1.765e-02          0.1276
 196       7.311e+00      -1.041e+01       3.576e-01          -0.120          -0.083          -0.989       5.174e-02          0.3014
 197       7.203e+00      -1.041e+01       3.617e-01           0.014          -0.044          -0.999       8.215e-02          0.3745
 198       7.048e+00      -1.041e+01       3.487e-01           0.136          -0.005          -0.991       1.092e-01          0.3333
 199       6.856e+00      -1.041e+01       3.164e-01           0.191           0.014          -0.981       1.305e-01          0.2325
 200       6.638e+00      -1.041e+01       2.785e-01           0.153           0.002          -0.988       1.421e-01          0.1308
 201       6.407e+00      -1.041e+01       2.524e-01           0.071          -0.029          -0.997       1.450e-01          0.1129
 202       6.175e+00      -1.041e+01       2.445e-01          -0.004          -0.058          -0.998       1.405e-01          0.1856
 203       5.957e+00      -1.041e+01       2.518e-01          -0.066          -0.084          -0.994       1.286e-01          0.3122
 204       5.765e+00      -1.041e+01       2.698e-01          -0.125          -0.110          -0.986       1.095e-01          0.4755
 205       5.610e+00      -1.041e+01       2.950e-01          -0.206          -0.148          -0.967       8.465e-02          0.6696
 206       5.502e+00      -1.041e+01       3.271e-01          -0.385          -0.235          -0.892       5.715e-02          0.7119
 207       5.446e+00      -1.041e+01       3.707e-01          -0.795          -0.429          -0.429       3.980e-02         -0.8959
 208       5.446e+00      -1.041e+01       4.214e-01          -0.794          -0.399           0.458       3.877e-02         -4.6616
 209       5.502e+00      -1.041e+01       4.624e-01          -0.353          -0.158           0.922       5.579e-02         -4.9273
 210       5.611e+00      -1.041e+01       4.890e-01          -0.156          -0.056           0.986       8.337e-02         -2.5646
 211       5.765e+00      -1.041e+01       5.064e-01          -0.077          -0.016           0.997       1.086e-01         -1.6383
 212       5.957e+00      -1.041e+01       5.160e-01          -0.028           0.008           1.000       1.280e-01         -1.2153
 213       6.175e+00      -1.041e+01       5.169e-01           0.017           0.029           0.999       1.403e-01         -0.9674
 214       6.407e+00      -1.041e+01       5.072e-01           0.066           0.051           0.996       1.449e-01         -0.7662
 215       6.639e+00      -1.041e+01       4.867e-01           0.110           0.069           0.992       1.413e-01         -0.5726
 216       6.857e+00      -1.041e+01       4.586e-01           0.146           0.083           0.986       1.296e-01         -0.3898
 217       7.049e+00      -1.041e+01       4.275e-01           0.176           0.094           0.980       1.102e-01         -0.2311
 218       7.203e+00      -1.041e+01       3.982e-01           0.199           0.102           0.975       8.410e-02         -0.1000
 219       7.312e+00      -1.041e+01       3.751e-01           0.220           0.108           0.970       5.278e-02         -0.0285
 220       7.367e+00      -1.041e+01       3.592e-01           0.419           0.161           0.894       1.919e-02          0.1892
Strip 9
 221       7.187e+00      -9.760e+00       3.197e-01          -0.000          -0.051          -0.999       2.124e-02          0.1306
 222       7.127e+00      -9.760e+00       3.253e-01          -0.124          -0.084          -0.989       6.231e-02          0.3065
 223       7.009e+00      -9.760e+00       3.303e-01           0.010          -0.045          -0.999       9.886e-02          0.3805
 224       6.842e+00      -9.760e+00       3.168e-01           0.132          -0.007          -0.991       1.314e-01          0.3401
 225       6.634e+00      -9.761e+00       2.827e-01           0.188           0.013          -0.982       1.569e-01          0.2399
 226       6.398e+00      -9.762e+00       2.426e-01           0.149           0.000          -0.989       1.709e-01          0.1390
 227       6.148e+00      -9.762e+00       2.154e-01           0.067          -0.030          -0.997       1.744e-01          0.1217
 228       5.897e+00      -9.763e+00       2.078e-01          -0.008          -0.060          -0.998       1.691e-01          0.1944
 229       5.661e+00      -9.763e+00       2.166e-01          -0.070          -0.086          -0.994       1.548e-01          0.3203
 230       5.454e+00      -9.762e+00       2.369e-01          -0.129          -0.112          -0.985       1.319e-01          0.4824
 231       5.286e+00      -9.762e+00       2.649e-01          -0.209          -0.149          -0.966       1.020e-01          0.6745
 232       5.169e+00      -9.761e+00       3.000e-01          -0.388          -0.236          -0.891       6.893e-02          0.7121
 233       5.109e+00      -9.761e+00       3.475e-01          -0.795          -0.429          -0.429       4.801e-02         -0.9055
 234       5.109e+00      -9.760e+00       4.024e-01          -0.794          -0.400           0.458       4.656e-02         -4.7028
 235       5.169e+00      -9.759e+00       4.465e-01          -0.350          -0.157           0.924       6.700e-02         -4.9762
 236       5.286e+00      -9.758e+00       4.748e-01          -0.152          -0.054           0.987       1.002e-01         -2.5827
 237       5.454e+00      -9.758e+00       4.929e-01          -0.073          -0.014           0.997       1.306e-01         -1.6487
 238       5.662e+00      -9.757e+00       5.026e-01          -0.024           0.010           1.000       1.540e-01         -1.2232
 239       5.898e+00      -9.757e+00       5.026e-01           0.021           0.031           0.999       1.689e-01         -0.9738
 240       6.148e+00      -9.757e+00       4.911e-01           0.070           0.053           0.996       1.744e-01         -0.7714
 241       6.399e+00      -9.758e+00       4.679e-01           0.114           0.071           0.991       1.702e-01         -0.5764
 242       6.635e+00      -9.758e+00       4.366e-01           0.150           0.085           0.985       1.562e-01         -0.3921
 243       6.843e+00      -9.759e+00       4.021e-01           0.179           0.095           0.979       1.328e-01         -0.2318
 244       7.010e+00      -9.759e+00       3.697e-01           0.202           0.103           0.974       1.013e-01         -0.0994
 245       7.127e+00      -9.760e+00       3.443e-01           0.223           0.109           0.969       6.359e-02         -0.0265
 246       7.187e+00      -9.760e+00       3.268e-01           0.421           0.161           0.892       2.314e-02          0.1917
Strip 10
 247       6.989e+00      -9.044e+00       2.834e-01          -0.004          -0.052          -0.999       2.519e-02          0.1323
 248       6.923e+00      -9.044e+00       2.897e-01          -0.128          -0.085          -0.988       7.392e-02          0.3100
 249       6.796e+00      -9.044e+00       2.955e-01           0.006          -0.047          -0.999       1.172e-01          0.3844
 250       6.615e+00      -9.044e+00       2.817e-01           0.129          -0.008          -0.992       1.557e-01          0.3443
 251       6.390e+00      -9.045e+00       2.455e-01           0.184           0.012          -0.983       1.859e-01          0.2442
 252       6.134e+00      -9.046e+00       2.030e-01           0.146          -0.001          -0.989       2.025e-01          0.1432
 253       5.862e+00      -9.046e+00       1.745e-01           0.063          -0.032          -0.997       2.068e-01          0.1258
 254       5.591e+00      -9.047e+00       1.673e-01          -0.011          -0.061          -0.998       2.006e-01          0.1981
 255       5.335e+00      -9.047e+00       1.778e-01          -0.073          -0.087          -0.993       1.837e-01          0.3233
 256       5.110e+00      -9.046e+00       2.006e-01          -0.132          -0.113          -0.985       1.566e-01          0.4844
 257       4.929e+00      -9.046e+00       2.316e-01          -0.213          -0.151          -0.965       1.211e-01          0.6756
 258       4.802e+00      -9.045e+00       2.702e-01          -0.391          -0.237          -0.889       8.190e-02          0.7158
 259       4.736e+00      -9.045e+00       3.219e-01          -0.795          -0.429          -0.429       5.704e-02         -0.8854
 260       4.737e+00      -9.044e+00       3.814e-01          -0.794          -0.400           0.458       5.509e-02         -4.6873
 261       4.802e+00      -9.043e+00       4.290e-01          -0.347          -0.155           0.925       7.928e-02         -4.9800
 262       4.929e+00      -9.042e+00       4.592e-01          -0.149          -0.053           0.987       1.187e-01         -2.5799
 263       5.110e+00      -9.042e+00       4.781e-01          -0.069          -0.013           0.998       1.548e-01         -1.6460
 264       5.336e+00      -9.042e+00       4.877e-01          -0.020           0.012           1.000       1.826e-01         -1.2211
 265       5.591e+00      -9.042e+00       4.868e-01           0.025           0.033           0.999       2.003e-01         -0.9723
 266       5.863e+00      -9.042e+00       4.733e-01           0.074           0.054           0.996       2.069e-01         -0.7702
 267       6.134e+00      -9.042e+00       4.472e-01           0.118           0.072           0.990       2.019e-01         -0.5753
 268       6.390e+00      -9.042e+00       4.123e-01           0.154           0.086           0.984       1.853e-01         -0.3909
 269       6.615e+00      -9.043e+00       3.740e-01           0.183           0.096           0.978       1.576e-01         -0.2303
 270       6.797e+00      -9.043e+00       3.383e-01           0.206           0.104           0.973       1.202e-01         -0.0975
 271       6.924e+00      -9.044e+00       3.103e-01           0.227           0.110           0.968       7.547e-02         -0.0241
 272       6.989e+00      -9.044e+00       2.911e-01           0.424           0.162           0.891       2.749e-02          0.1940
Strip 11
 273       6.773e+00      -8.266e+00       2.439e-01          -0.008          -0.053          -0.999       2.946e-02          0.1334
 274       6.702e+00      -8.266e+00       2.511e-01          -0.131          -0.086          -0.988       8.651e-02          0.3125
 275       6.564e+00      -8.266e+00       2.578e-01           0.003          -0.048          -0.999       1.371e-01          0.3871
 276       6.368e+00      -8.267e+00       2.435e-01           0.125          -0.009          -0.992       1.820e-01          0.3470
 277       6.124e+00      -8.267e+00       2.051e-01           0.181           0.011          -0.983       2.172e-01          0.2464
 278       5.847e+00      -8.268e+00       1.599e-01           0.142          -0.002          -0.990       2.367e-01          0.1446
 279       5.553e+00      -8.268e+00       1.301e-01           0.060          -0.033          -0.998       2.418e-01          0.1264
 280       5.258e+00      -8.269e+00       1.233e-01          -0.015          -0.063          -0.998       2.346e-01          0.1980
 281       4.981e+00      -8.269e+00       1.356e-01          -0.077          -0.089          -0.993       2.149e-01          0.3223
 282       4.737e+00      -8.268e+00       1.612e-01          -0.136          -0.115          -0.984       1.833e-01          0.4825
 283       4.541e+00      -8.268e+00       1.955e-01          -0.216          -0.152          -0.965       1.418e-01          0.6736
 284       4.403e+00      -8.267e+00       2.378e-01          -0.393          -0.238          -0.888       9.599e-02          0.7224
 285       4.332e+00      -8.267e+00       2.941e-01          -0.795          -0.429          -0.429       6.686e-02         -0.8403
 286       4.332e+00      -8.266e+00       3.586e-01          -0.794          -0.400           0.457       6.431e-02         -4.6232
 287       4.403e+00      -8.265e+00       4.100e-01          -0.345          -0.154           0.926       9.257e-02         -4.9446
 288       4.541e+00      -8.265e+00       4.422e-01          -0.146          -0.051           0.988       1.388e-01         -2.5591
 289       4.737e+00      -8.264e+00       4.621e-01          -0.066          -0.011           0.998       1.810e-01         -1.6325
 290       4.981e+00      -8.264e+00       4.716e-01          -0.017           0.013           1.000       2.136e-01         -1.2115
 291       5.259e+00      -8.264e+00       4.697e-01           0.028           0.034           0.999       2.343e-01         -0.9650
 292       5.553e+00      -8.264e+00       4.540e-01           0.077           0.055           0.995       2.421e-01         -0.7644
 293       5.847e+00      -8.264e+00       4.247e-01           0.121           0.073           0.990       2.363e-01         -0.5708
 294       6.124e+00      -8.265e+00       3.859e-01           0.157           0.087           0.984       2.169e-01         -0.3873
 295       6.368e+00      -8.265e+00       3.436e-01           0.186           0.097           0.978       1.844e-01         -0.2273
 296       6.565e+00      -8.266e+00       3.041e-01           0.209           0.105           0.972       1.408e-01         -0.0949
 297       6.703e+00      -8.266e+00       2.733e-01           0.230           0.111           0.967       8.836e-02         -0.0216
 298       6.774e+00      -8.266e+00       2.523e-01           0.426           0.163           0.890       3.220e-02          0.1962
Strip 12
 299       6.542e+00      -7.432e+00       2.016e-01          -0.011          -0.054          -0.999       3.403e-02          0.1339
 300       6.465e+00      -7.432e+00       2.096e-01          -0.134          -0.087          -0.987       9.997e-02          0.3142
 301       6.316e+00      -7.432e+00       2.174e-01          -0.000          -0.049          -0.999       1.583e-01          0.3889
 302       6.103e+00      -7.432e+00       2.025e-01           0.122          -0.010          -0.992       2.101e-01          0.3486
 303       5.839e+00      -7.433e+00       1.617e-01           0.178           0.010          -0.984       2.507e-01          0.2471
 304       5.539e+00      -7.434e+00       1.138e-01           0.139          -0.003          -0.990       2.732e-01          0.1438
 305       5.220e+00      -7.434e+00       8.250e-02           0.057          -0.034          -0.998       2.792e-01          0.1243
 306       4.901e+00      -7.434e+00       7.609e-02          -0.018          -0.064          -0.998       2.710e-01          0.1948
 307       4.601e+00      -7.434e+00       9.041e-02          -0.080          -0.090          -0.993       2.483e-01          0.3181
 308       4.337e+00      -7.434e+00       1.190e-01          -0.139          -0.116          -0.983       2.118e-01          0.4773
 309       4.124e+00      -7.434e+00       1.568e-01          -0.218          -0.154          -0.964       1.640e-01          0.6689
 310       3.975e+00      -7.433e+00       2.031e-01          -0.395          -0.240          -0.887       1.111e-01          0.7312
 311       3.898e+00      -7.433e+00       2.642e-01          -0.795          -0.429          -0.429       7.736e-02         -0.7741
 312       3.898e+00      -7.432e+00       3.341e-01          -0.794          -0.400           0.457       7.414e-02         -4.5159
 313       3.975e+00      -7.431e+00       3.895e-01          -0.342          -0.153           0.927       1.067e-01         -4.8735
 314       4.124e+00      -7.431e+00       4.240e-01          -0.143          -0.050           0.989       1.602e-01         -2.5226
 315       4.337e+00      -7.430e+00       4.448e-01          -0.063          -0.009           0.998       2.089e-01         -1.6099
 316       4.602e+00      -7.430e+00       4.544e-01          -0.013           0.015           1.000       2.466e-01         -1.1955
 317       4.902e+00      -7.430e+00       4.513e-01           0.032           0.035           0.999       2.706e-01         -0.9528
 318       5.221e+00      -7.430e+00       4.333e-01           0.080           0.057           0.995       2.797e-01         -0.7550
 319       5.539e+00      -7.430e+00       4.006e-01           0.124           0.074           0.989       2.731e-01         -0.5636
 320       5.839e+00      -7.431e+00       3.576e-01           0.160           0.088           0.983       2.506e-01         -0.3818
 321       6.104e+00      -7.431e+00       3.109e-01           0.189           0.098           0.977       2.132e-01         -0.2231
 322       6.317e+00      -7.432e+00       2.675e-01           0.212           0.106           0.972       1.627e-01         -0.0917
 323       6.466e+00      -7.432e+00       2.337e-01           0.233           0.112           0.966       1.022e-01         -0.0191
 324       6.542e+00      -7.432e+00       2.106e-01           0.429           0.163           0.889       3.725e-02          0.1979
Strip 13
 325       6.297e+00      -6.547e+00       1.567e-01          -0.014          -0.054          -0.998       3.884e-02          0.1340
 326       6.213e+00      -6.547e+00       1.656e-01          -0.137          -0.088          -0.987       1.142e-01          0.3155
 327       6.052e+00      -6.547e+00       1.745e-01          -0.003          -0.049          -0.999       1.807e-01          0.3901
 328       5.822e+00      -6.547e+00       1.591e-01           0.119          -0.011          -0.993       2.397e-01          0.3494
 329       5.536e+00      -6.548e+00       1.158e-01           0.175           0.009          -0.985       2.860e-01          0.2466
 330       5.212e+00      -6.548e+00       6.485e-02           0.137          -0.004          -0.991       3.117e-01          0.1414
 331       4.867e+00      -6.549e+00       3.199e-02           0.054          -0.035          -0.998       3.186e-01          0.1199
 332       4.523e+00      -6.549e+00       2.604e-02          -0.021          -0.065          -0.998       3.093e-01          0.1889
 333       4.198e+00      -6.549e+00       4.245e-02          -0.083          -0.091          -0.992       2.835e-01          0.3109
 334       3.913e+00      -6.549e+00       7.415e-02          -0.141          -0.118          -0.983       2.419e-01          0.4692
 335       3.683e+00      -6.548e+00       1.157e-01          -0.221          -0.155          -0.963       1.873e-01          0.6617
 336       3.521e+00      -6.548e+00       1.662e-01          -0.397          -0.240          -0.886       1.270e-01          0.7415
 337       3.438e+00      -6.547e+00       2.326e-01          -0.795          -0.429          -0.429       8.845e-02         -0.6892
 338       3.438e+00      -6.547e+00       3.082e-01          -0.794          -0.400           0.457       8.449e-02         -4.3690
 339       3.521e+00      -6.546e+00       3.679e-01          -0.340          -0.152           0.928       1.217e-01         -4.7696
 340       3.683e+00      -6.546e+00       4.047e-01          -0.140          -0.048           0.989       1.827e-01         -2.4717
 341       3.913e+00      -6.546e+00       4.266e-01          -0.060          -0.008           0.998       2.384e-01         -1.5789
 342       4.199e+00      -6.545e+00       4.360e-01          -0.011           0.016           1.000       2.815e-01         -1.1739
 343       4.523e+00      -6.545e+00       4.318e-01           0.034           0.037           0.999       3.089e-01         -0.9366
 344       4.868e+00      -6.545e+00       4.114e-01           0.083           0.058           0.995       3.194e-01         -0.7427
 345       5.212e+00      -6.546e+00       3.750e-01           0.127           0.075           0.989       3.119e-01         -0.5544
 346       5.537e+00      -6.546e+00       3.276e-01           0.163           0.089           0.983       2.863e-01         -0.3750
 347       5.823e+00      -6.546e+00       2.763e-01           0.192           0.099           0.976       2.435e-01         -0.2182
 348       6.053e+00      -6.547e+00       2.287e-01           0.215           0.107           0.971       1.859e-01         -0.0882
 349       6.214e+00      -6.547e+00       1.917e-01           0.235           0.113           0.965       1.167e-01         -0.0167
 350       6.297e+00      -6.547e+00       1.665e-01           0.431           0.164           0.888       4.258e-02          0.1993
Strip 14
 351       6.039e+00      -5.617e+00       1.095e-01          -0.016          -0.055          -0.998       4.383e-02          0.1337
 352       5.949e+00      -5.617e+00       1.193e-01          -0.139          -0.089          -0.986       1.289e-01          0.3164
 353       5.775e+00      -5.617e+00       1.294e-01          -0.006          -0.050          -0.999       2.039e-01          0.3909
 354       5.527e+00      -5.618e+00       1.134e-01           0.117          -0.012          -0.993       2.703e-01          0.3496
 355       5.219e+00      -5.618e+00       6.749e-02           0.173           0.008          -0.985       3.225e-01          0.2452
 356       4.869e+00      -5.618e+00       1.343e-02           0.134          -0.005          -0.991       3.515e-01          0.1374
 357       4.497e+00      -5.619e+00      -2.108e-02           0.052          -0.036          -0.998       3.594e-01          0.1135
 358       4.125e+00      -5.619e+00      -2.654e-02          -0.023          -0.066          -0.998       3.491e-01          0.1806
 359       3.775e+00      -5.619e+00      -7.936e-03          -0.085          -0.093          -0.992       3.200e-01          0.3011
 360       3.467e+00      -5.619e+00       2.707e-02          -0.144          -0.119          -0.982       2.731e-01          0.4581
 361       3.219e+00      -5.619e+00       7.257e-02          -0.223          -0.156          -0.962       2.116e-01          0.6517
 362       3.045e+00      -5.618e+00       1.275e-01          -0.399          -0.241          -0.885       1.435e-01          0.7524
 363       2.955e+00      -5.618e+00       1.994e-01          -0.795          -0.429          -0.430       9.995e-02         -0.5870
 364       2.955e+00      -5.617e+00       2.809e-01          -0.795          -0.400           0.457       9.519e-02         -4.1839
 365       3.045e+00      -5.617e+00       3.451e-01          -0.338          -0.151           0.929       1.371e-01         -4.6335
 366       3.219e+00      -5.616e+00       3.844e-01          -0.137          -0.047           0.989       2.060e-01         -2.4066
 367       3.467e+00      -5.616e+00       4.073e-01          -0.057          -0.007           0.998       2.689e-01         -1.5400
 368       3.775e+00      -5.616e+00       4.168e-01          -0.008           0.017           1.000       3.176e-01         -1.1470
 369       4.126e+00      -5.616e+00       4.114e-01           0.037           0.038           0.999       3.486e-01         -0.9168
 370       4.497e+00      -5.616e+00       3.883e-01           0.086           0.059           0.995       3.605e-01         -0.7278
 371       4.869e+00      -5.616e+00       3.481e-01           0.129           0.076           0.989       3.521e-01         -0.5434
 372       5.219e+00      -5.616e+00       2.961e-01           0.165           0.090           0.982       3.232e-01         -0.3671
 373       5.528e+00      -5.617e+00       2.399e-01           0.194           0.100           0.976       2.749e-01         -0.2128
 374       5.776e+00      -5.617e+00       1.879e-01           0.217           0.107           0.970       2.099e-01         -0.0846
 375       5.950e+00      -5.617e+00       1.475e-01           0.238           0.113           0.965       1.318e-01         -0.0145
 376       6.040e+00      -5.617e+00       1.201e-01           0.432           0.164           0.887       4.810e-02          0.2003
Strip 15
 377       5.771e+00      -4.649e+00       6.043e-02          -0.018          -0.056          -0.998       4.891e-02          0.1330
 378       5.674e+00      -4.649e+00       7.121e-02          -0.142          -0.089          -0.986       1.439e-01          0.3170
 379       5.487e+00      -4.649e+00       8.246e-02          -0.008          -0.051          -0.999       2.276e-01          0.3913
 380       5.219e+00      -4.649e+00       6.585e-02           0.115          -0.012          -0.993       3.016e-01          0.3493
 381       4.888e+00      -4.650e+00       1.720e-02           0.171           0.007          -0.985       3.597e-01          0.2429
 382       4.511e+00      -4.650e+00      -4.011e-02           0.132          -0.006          -0.991       3.921e-01          0.1321
 383       4.111e+00      -4.651e+00      -7.633e-02           0.049          -0.037          -0.998       4.010e-01          0.1052
 384       3.711e+00      -4.651e+00      -8.130e-02          -0.026          -0.067          -0.997       3.896e-01          0.1700
 385       3.334e+00      -4.651e+00      -6.040e-02          -0.087          -0.094          -0.992       3.573e-01          0.2885
 386       3.003e+00      -4.650e+00      -2.196e-02          -0.146          -0.120          -0.982       3.050e-01          0.4439
 387       2.735e+00      -4.650e+00       2.763e-02          -0.225          -0.157          -0.962       2.363e-01          0.6384
 388       2.548e+00      -4.650e+00       8.718e-02          -0.400          -0.242          -0.884       1.604e-01          0.7631
 389       2.452e+00      -4.650e+00       1.647e-01          -0.795          -0.429          -0.430       1.117e-01         -0.4680
 390       2.452e+00      -4.649e+00       2.525e-01          -0.795          -0.400           0.457       1.061e-01         -3.9582
 391       2.548e+00      -4.649e+00       3.214e-01          -0.336          -0.150           0.930       1.528e-01         -4.4623
 392       2.735e+00      -4.648e+00       3.632e-01          -0.135          -0.046           0.990       2.298e-01         -2.3265
 393       3.003e+00      -4.648e+00       3.873e-01          -0.055          -0.006           0.998       3.001e-01         -1.4927
 394       3.335e+00      -4.648e+00       3.967e-01          -0.006           0.018           1.000       3.544e-01         -1.1148
 395       3.711e+00      -4.648e+00       3.900e-01           0.039           0.039           0.998       3.891e-01         -0.8935
 396       4.112e+00      -4.648e+00       3.643e-01           0.088           0.060           0.994       4.024e-01         -0.7108
 397       4.512e+00      -4.648e+00       3.201e-01           0.131           0.077           0.988       3.930e-01         -0.5312
 398       4.889e+00      -4.648e+00       2.632e-01           0.167           0.091           0.982       3.608e-01         -0.3587
 399       5.220e+00      -4.649e+00       2.020e-01           0.196           0.100           0.975       3.070e-01         -0.2071
 400       5.488e+00      -4.649e+00       1.454e-01           0.219           0.108           0.970       2.344e-01         -0.0810
 401       5.675e+00      -4.649e+00       1.015e-01           0.240           0.114           0.964       1.472e-01         -0.0126
 402       5.771e+00      -4.649e+00       7.179e-02           0.434           0.164           0.886       5.374e-02          0.2005
Strip 16
 403       5.494e+00      -3.650e+00       9.706e-03          -0.020          -0.056          -0.998       5.401e-02          0.1320
 404       5.390e+00      -3.650e+00       2.150e-02          -0.144          -0.090          -0.986       1.589e-01          0.3173
 405       5.189e+00      -3.649e+00       3.399e-02          -0.010          -0.051          -0.999       2.513e-01          0.3916
 406       4.902e+00      -3.650e+00       1.675e-02           0.113          -0.013          -0.994       3.329e-01          0.3486
 407       4.546e+00      -3.650e+00      -3.473e-02           0.169           0.006          -0.986       3.970e-01          0.2400
 408       4.142e+00      -3.650e+00      -9.542e-02           0.130          -0.007          -0.992       4.328e-01          0.1254
 409       3.712e+00      -3.650e+00      -1.334e-01           0.047          -0.038          -0.998       4.427e-01          0.0950
 410       3.283e+00      -3.651e+00      -1.378e-01          -0.028          -0.068          -0.997       4.302e-01          0.1571
 411       2.879e+00      -3.651e+00      -1.146e-01          -0.089          -0.094          -0.991       3.946e-01          0.2731
 412       2.523e+00      -3.650e+00      -7.260e-02          -0.148          -0.121          -0.982       3.369e-01          0.4263
 413       2.236e+00      -3.650e+00      -1.878e-02          -0.227          -0.158          -0.961       2.611e-01          0.6213
 414       2.035e+00      -3.650e+00       4.554e-02          -0.402          -0.243          -0.883       1.772e-01          0.7726
 415       1.932e+00      -3.650e+00       1.290e-01          -0.795          -0.429          -0.430       1.235e-01         -0.3300
 416       1.932e+00      -3.649e+00       2.232e-01          -0.795          -0.400           0.457       1.170e-01         -3.6849
 417       2.035e+00      -3.649e+00       2.969e-01          -0.335          -0.149           0.930       1.685e-01         -4.2493
 418       2.236e+00      -3.649e+00       3.414e-01          -0.133          -0.045           0.990       2.536e-01         -2.2282
 419       2.523e+00      -3.649e+00       3.667e-01          -0.053          -0.005           0.999       3.312e-01         -1.4359
 420       2.879e+00      -3.649e+00       3.760e-01          -0.004           0.019           1.000       3.913e-01         -1.0772
 421       3.284e+00      -3.649e+00       3.680e-01           0.041           0.040           0.998       4.296e-01         -0.8671
 422       3.713e+00      -3.649e+00       3.395e-01           0.090           0.061           0.994       4.444e-01         -0.6923
 423       4.143e+00      -3.649e+00       2.912e-01           0.133           0.078           0.988       4.341e-01         -0.5187
 424       4.547e+00      -3.649e+00       2.293e-01           0.169           0.091           0.981       3.986e-01         -0.3504
 425       4.903e+00      -3.649e+00       1.629e-01           0.198           0.101           0.975       3.391e-01         -0.2019
 426       5.190e+00      -3.649e+00       1.016e-01           0.221           0.108           0.969       2.589e-01         -0.0780
 427       5.391e+00      -3.649e+00       5.401e-02           0.242           0.114           0.964       1.626e-01         -0.0114
 428       5.494e+00      -3.649e+00       2.191e-02           0.435           0.165           0.885       5.940e-02          0.2000
Strip 17
 429       5.210e+00      -2.625e+00      -4.228e-02          -0.022          -0.057          -0.998       5.901e-02          0.1302
 430       5.098e+00      -2.625e+00      -2.946e-02          -0.145          -0.090          -0.985       1.737e-01          0.3171
 431       4.883e+00      -2.625e+00      -1.570e-02          -0.012          -0.052          -0.999       2.745e-01          0.3915
 432       4.577e+00      -2.625e+00      -3.358e-02           0.111          -0.014          -0.994       3.636e-01          0.3477
 433       4.196e+00      -2.625e+00      -8.796e-02           0.167           0.006          -0.986       4.335e-01          0.2364
 434       3.763e+00      -2.625e+00      -1.521e-01           0.128          -0.008          -0.992       4.726e-01          0.1178
 435       3.304e+00      -2.625e+00      -1.919e-01           0.045          -0.039          -0.998       4.836e-01          0.0835
 436       2.845e+00      -2.625e+00      -1.958e-01          -0.029          -0.069          -0.997       4.700e-01          0.1424
 437       2.412e+00      -2.625e+00      -1.701e-01          -0.091          -0.095          -0.991       4.312e-01          0.2554
 438       2.031e+00      -2.625e+00      -1.245e-01          -0.150          -0.122          -0.981       3.682e-01          0.4054
 439       1.725e+00      -2.625e+00      -6.635e-02          -0.229          -0.159          -0.960       2.854e-01          0.5995
 440       1.510e+00      -2.625e+00       2.860e-03          -0.403          -0.243          -0.882       1.939e-01          0.7798
 441       1.399e+00      -2.625e+00       9.236e-02          -0.795          -0.429          -0.430       1.350e-01         -0.1672
 442       1.399e+00      -2.625e+00       1.932e-01          -0.795          -0.400           0.457       1.277e-01         -3.3456
 443       1.510e+00      -2.624e+00       2.718e-01          -0.334          -0.148           0.931       1.840e-01         -3.9765
 444       1.725e+00      -2.624e+00       3.190e-01          -0.131          -0.044           0.990       2.769e-01         -2.1034
 445       2.032e+00      -2.624e+00       3.455e-01          -0.051          -0.004           0.999       3.618e-01         -1.3655
 446       2.413e+00      -2.624e+00       3.548e-01          -0.002           0.020           1.000       4.275e-01         -1.0330
 447       2.845e+00      -2.624e+00       3.454e-01           0.043           0.040           0.998       4.694e-01         -0.8385
 448       3.305e+00      -2.624e+00       3.141e-01           0.092           0.061           0.994       4.856e-01         -0.6743
 449       3.764e+00      -2.624e+00       2.616e-01           0.135           0.079           0.988       4.744e-01         -0.5081
 450       4.197e+00      -2.624e+00       1.946e-01           0.171           0.092           0.981       4.356e-01         -0.3445
 451       4.578e+00      -2.624e+00       1.228e-01           0.200           0.102           0.975       3.707e-01         -0.1988
 452       4.885e+00      -2.625e+00       5.661e-02           0.223           0.109           0.969       2.830e-01         -0.0768
 453       5.100e+00      -2.625e+00       5.325e-03           0.243           0.115           0.963       1.777e-01         -0.0118
 454       5.210e+00      -2.625e+00      -2.923e-02           0.437           0.165           0.884       6.495e-02          0.1977
Strip 18
 455       4.921e+00      -1.582e+00      -9.517e-02          -0.024          -0.057          -0.998       6.380e-02          0.1275
 456       4.802e+00      -1.582e+00      -8.131e-02          -0.147          -0.091          -0.985       1.878e-01          0.3165
 457       4.573e+00      -1.582e+00      -6.626e-02          -0.014          -0.052          -0.999       2.969e-01          0.3912
 458       4.246e+00      -1.582e+00      -8.479e-02           0.109          -0.014          -0.994       3.930e-01          0.3461
 459       3.840e+00      -1.582e+00      -1.421e-01           0.165           0.005          -0.986       4.686e-01          0.2317
 460       3.378e+00      -1.582e+00      -2.098e-01           0.126          -0.008          -0.992       5.109e-01          0.1089
 461       2.889e+00      -1.582e+00      -2.514e-01           0.044          -0.040          -0.998       5.229e-01          0.0715
 462       2.399e+00      -1.583e+00      -2.548e-01          -0.031          -0.070          -0.997       5.083e-01          0.1281
 463       1.937e+00      -1.583e+00      -2.266e-01          -0.093          -0.096          -0.991       4.663e-01          0.2379
 464       1.531e+00      -1.582e+00      -1.773e-01          -0.151          -0.122          -0.981       3.982e-01          0.3831
 465       1.204e+00      -1.582e+00      -1.148e-01          -0.230          -0.159          -0.960       3.088e-01          0.5736
 466       9.749e-01      -1.582e+00      -4.056e-02          -0.404          -0.244          -0.882       2.098e-01          0.7852
 467       8.569e-01      -1.582e+00       5.509e-02          -0.795          -0.429          -0.430       1.461e-01          0.0394
 468       8.569e-01      -1.582e+00       1.626e-01          -0.795          -0.400           0.457       1.379e-01         -2.8915
 469       9.750e-01      -1.582e+00       2.463e-01          -0.332          -0.148           0.932       1.987e-01         -3.5956
 470       1.204e+00      -1.582e+00       2.962e-01          -0.130          -0.043           0.991       2.993e-01         -1.9301
 471       1.532e+00      -1.582e+00       3.240e-01          -0.049          -0.003           0.999       3.911e-01         -1.2722
 472       1.938e+00      -1.582e+00       3.332e-01          -0.000           0.021           1.000       4.622e-01         -0.9799
 473       2.399e+00      -1.582e+00       3.224e-01           0.045           0.041           0.998       5.076e-01         -0.8099
 474       2.889e+00      -1.582e+00       2.882e-01           0.093           0.062           0.994       5.251e-01         -0.6619
 475       3.379e+00      -1.582e+00       2.314e-01           0.137           0.079           0.987       5.131e-01         -0.5056
 476       3.841e+00      -1.582e+00       1.592e-01           0.173           0.092           0.981       4.712e-01         -0.3467
 477       4.247e+00      -1.582e+00       8.199e-02           0.201           0.102           0.974       4.010e-01         -0.2023
 478       4.574e+00      -1.582e+00       1.086e-02           0.224           0.109           0.968       3.061e-01         -0.0802
 479       4.804e+00      -1.582e+00      -4.421e-02           0.245           0.115           0.963       1.922e-01         -0.0153
 480       4.921e+00      -1.582e+00      -8.125e-02           0.438           0.165           0.884       7.029e-02          0.1936
Strip 19
 481       4.629e+00      -5.286e-01      -1.486e-01          -0.025          -0.058          -0.998       6.829e-02          0.1247
 482       4.503e+00      -5.286e-01      -1.337e-01          -0.148          -0.091          -0.985       2.011e-01          0.3160
 483       4.259e+00      -5.286e-01      -1.173e-01          -0.015          -0.053          -0.998       3.177e-01          0.3900
 484       3.911e+00      -5.286e-01      -1.365e-01           0.108          -0.015          -0.994       4.205e-01          0.3394
 485       3.480e+00      -5.286e-01      -1.968e-01           0.164           0.005          -0.986       5.013e-01          0.2183
 486       2.989e+00      -5.287e-01      -2.680e-01           0.125          -0.009          -0.992       5.467e-01          0.0944
 487       2.469e+00      -5.287e-01      -3.115e-01           0.042          -0.040          -0.998       5.596e-01          0.0635
 488       1.948e+00      -5.287e-01      -3.144e-01          -0.033          -0.070          -0.997       5.440e-01          0.1274
 489       1.458e+00      -5.287e-01      -2.837e-01          -0.094          -0.097          -0.991       4.992e-01          0.2382
 490       1.026e+00      -5.287e-01      -2.307e-01          -0.153          -0.123          -0.981       4.264e-01          0.3798
 491       6.783e-01      -5.287e-01      -1.637e-01          -0.232          -0.160          -0.960       3.307e-01          0.5635
 492       4.346e-01      -5.286e-01      -8.444e-02          -0.405          -0.244          -0.881       2.247e-01          0.7943
 493       3.091e-01      -5.286e-01       1.742e-02          -0.795          -0.429          -0.430       1.565e-01          0.3236
 494       3.092e-01      -5.285e-01       1.317e-01          -0.795          -0.400           0.457       1.475e-01         -2.1443
 495       4.347e-01      -5.285e-01       2.205e-01          -0.331          -0.147           0.932       2.125e-01         -2.8936
 496       6.785e-01      -5.284e-01       2.732e-01          -0.128          -0.043           0.991       3.203e-01         -1.6014
 497       1.026e+00      -5.284e-01       3.022e-01          -0.048          -0.002           0.999       4.186e-01         -1.1191
 498       1.458e+00      -5.284e-01       3.114e-01           0.001           0.021           1.000       4.947e-01         -0.9155
 499       1.949e+00      -5.284e-01       2.992e-01           0.046           0.042           0.998       5.433e-01         -0.7899
 500       2.469e+00      -5.284e-01       2.621e-01           0.095           0.062           0.994       5.621e-01         -0.6708
 501       2.990e+00      -5.284e-01       2.010e-01           0.138           0.080           0.987       5.493e-01         -0.5314
 502       3.481e+00      -5.284e-01       1.235e-01           0.174           0.093           0.980       5.045e-01         -0.3773
 503       3.913e+00      -5.285e-01       4.075e-02           0.203           0.102           0.974       4.293e-01         -0.2282
 504       4.260e+00      -5.285e-01      -3.536e-02           0.225           0.110           0.968       3.278e-01         -0.0985
 505       4.504e+00      -5.285e-01      -9.426e-02           0.246           0.116           0.962       2.058e-01         -0.0270
 506       4.629e+00      -5.286e-01      -1.338e-01           0.439           0.166           0.883       7.528e-02          0.1846
Strip 20
 507       4.629e+00       5.286e-01      -1.486e-01          -0.025           0.058          -0.998       6.829e-02          0.1247
 508       4.503e+00       5.286e-01      -1.337e-01          -0.148           0.091          -0.985       2.011e-01          0.3160
 509       4.259e+00       5.286e-01      -1.173e-01          -0.015           0.053          -0.998       3.177e-01          0.3900
 510       3.911e+00       5.286e-01      -1.365e-01           0.108           0.015          -0.994       4.205e-01          0.3394
 511       3.480e+00       5.286e-01      -1.968e-01           0.164          -0.005          -0.986       5.013e-01          0.2183
 512       2.989e+00       5.287e-01      -2.680e-01           0.125           0.009          -0.992       5.467e-01          0.0944
 513       2.469e+00       5.287e-01      -3.115e-01           0.042           0.040          -0.998       5.596e-01          0.0635
 514       1.948e+00       5.287e-01      -3.144e-01          -0.033           0.070          -0.997       5.440e-01          0.1274
 515       1.458e+00       5.287e-01      -2.837e-01          -0.094           0.097          -0.991       4.992e-01          0.2382
 516       1.026e+00       5.287e-01      -2.307e-01          -0.153           0.123          -0.981       4.264e-01          0.3798
 517       6.783e-01       5.287e-01      -1.637e-01          -0.232           0.160          -0.960       3.307e-01          0.5635
 518       4.346e-01       5.286e-01      -8.444e-02          -0.405           0.244          -0.881       2.247e-01          0.7943
 519       3.091e-01       5.286e-01       1.742e-02          -0.795           0.429          -0.430       1.565e-01          0.3236
 520       3.092e-01       5.285e-01       1.317e-01          -0.795           0.400           0.457       1.475e-01         -2.1443
 521       4.347e-01       5.285e-01       2.205e-01          -0.331           0.147           0.932       2.125e-01         -2.8936
 522       6.785e-01       5.284e-01       2.732e-01          -0.128           0.043           0.991       3.203e-01         -1.6014
 523       1.026e+00       5.284e-01       3.022e-01          -0.048           0.002           0.999       4.186e-01         -1.1191
 524       1.458e+00       5.284e-01       3.114e-01           0.001          -0.021           1.000       4.947e-01         -0.9155
 525       1.949e+00       5.284e-01       2.992e-01           0.046          -0.042           0.998       5.433e-01         -0.7899
 526       2.469e+00       5.284e-01       2.621e-01           0.095          -0.062           0.994       5.621e-01         -0.6708
 527       2.990e+00       5.284e-01       2.010e-01           0.138          -0.080           0.987       5.493e-01         -0.5314
 528       3.481e+00       5.284e-01       1.235e-01           0.174          -0.093           0.980       5.045e-01         -0.3773
 529       3.913e+00       5.285e-01       4.075e-02           0.203          -0.102           0.974       4.293e-01         -0.2282
 530       4.260e+00       5.285e-01      -3.536e-02           0.225          -0.110           0.968       3.278e-01         -0.0985
 531       4.504e+00       5.285e-01      -9.426e-02           0.246          -0.116           0.962       2.058e-01         -0.0270
 532       4.629e+00       5.286e-01      -1.338e-01           0.439          -0.166           0.883       7.528e-02          0.1846
Strip 21
 533       4.921e+00       1.582e+00      -9.517e-02          -0.024           0.057          -0.998       6.380e-02          0.1275
 534       4.802e+00       1.582e+00      -8.131e-02          -0.147           0.091          -0.985       1.878e-01          0.3165
 535       4.573e+00       1.582e+00      -6.626e-02          -0.014           0.052          -0.999       2.969e-01          0.3912
 536       4.246e+00       1.582e+00      -8.479e-02           0.109           0.014          -0.994       3.930e-01          0.3461
 537       3.840e+00       1.582e+00      -1.421e-01           0.165          -0.005          -0.986       4.686e-01          0.2317
 538       3.378e+00       1.582e+00      -2.098e-01           0.126           0.008          -0.992       5.109e-01          0.1089
 539       2.889e+00       1.582e+00      -2.514e-01           0.044           0.040          -0.998       5.229e-01          0.0715
 540       2.399e+00       1.583e+00      -2.548e-01          -0.031           0.070          -0.997       5.083e-01          0.1281
 541       1.937e+00       1.583e+00      -2.266e-01          -0.093           0.096          -0.991       4.663e-01          0.2379
 542       1.531e+00       1.582e+00      -1.773e-01          -0.151           0.122          -0.981       3.982e-01          0.3831
 543       1.204e+00       1.582e+00      -1.148e-01          -0.230           0.159          -0.960       3.088e-01          0.5736
 544       9.749e-01       1.582e+00      -4.056e-02          -0.404           0.244          -0.882       2.098e-01          0.7852
 545       8.569e-01       1.582e+00       5.509e-02          -0.795           0.429          -0.430       1.461e-01          0.0394
 546       8.569e-01       1.582e+00       1.626e-01          -0.795           0.400           0.457       1.379e-01         -2.8915
 547       9.750e-01       1.582e+00       2.463e-01          -0.332           0.148           0.932       1.987e-01         -3.5956
 548       1.204e+00       1.582e+00       2.962e-01          -0.130           0.043           0.991       2.993e-01         -1.9301
 549       1.532e+00       1.582e+00       3.240e-01          -0.049           0.003           0.999       3.911e-01         -1.2722
 550       1.938e+00       1.582e+00       3.332e-01          -0.000          -0.021           1.000       4.622e-01         -0.9799
 551       2.399e+00       1.582e+00       3.224e-01           0.045          -0.041           0.998       5.076e-01         -0.8099
 552       2.889e+00       1.582e+00       2.882e-01           0.093          -0.062           0.994       5.251e-01         -0.6619
 553       3.379e+00       1.582e+00       2.314e-01           0.137          -0.079           0.987       5.131e-01         -0.5056
 554       3.841e+00       1.582e+00       1.592e-01           0.173          -0.092           0.981       4.712e-01         -0.3467
 555       4.247e+00       1.582e+00       8.199e-02           0.201          -0.102           0.974       4.010e-01         -0.2023
 556       4.574e+00       1.582e+00       1.086e-02           0.224          -0.109           0.968       3.061e-01         -0.0802
 557       4.804e+00       1.582e+00      -4.421e-02           0.245          -0.115           0.963       1.922e-01         -0.0153
 558       4.921e+00       1.582e+00      -8.125e-02           0.438          -0.165           0.884       7.029e-02          0.1936
Strip 22
 559       5.210e+00       2.625e+00      -4.228e-02          -0.022           0.057          -0.998       5.901e-02          0.1302
 560       5.098e+00       2.625e+00      -2.946e-02          -0.145           0.090          -0.985       1.737e-01          0.3171
 561       4.883e+00       2.625e+00      -1.570e-02          -0.012           0.052          -0.999       2.745e-01          0.3915
 562       4.577e+00       2.625e+00      -3.358e-02           0.111           0.014          -0.994       3.636e-01          0.3477
 563       4.196e+00       2.625e+00      -8.796e-02           0.167          -0.006          -0.986       4.335e-01          0.2364
 564       3.763e+00       2.625e+00      -1.521e-01           0.128           0.008          -0.992       4.726e-01          0.1178
 565       3.304e+00       2.625e+00      -1.919e-01           0.045           0.039          -0.998       4.836e-01          0.0835
 566       2.845e+00       2.625e+00      -1.958e-01          -0.029           0.069          -0.997       4.700e-01          0.1424
 567       2.412e+00       2.625e+00      -1.701e-01          -0.091           0.095          -0.991       4.312e-01          0.2554
 568       2.031e+00       2.625e+00      -1.245e-01          -0.150           0.122          -0.981       3.682e-01          0.4054
[...]
 852       6.638e+00       1.149e+01       3.056e-01           0.005           0.054          -0.999       9.168e-02          0.1421
 853       6.449e+00       1.149e+01       3.104e-01          -0.058           0.080          -0.995       8.383e-02          0.2703
 854       6.284e+00       1.149e+01       3.245e-01          -0.117           0.106          -0.987       7.136e-02          0.4379
 855       6.150e+00       1.149e+01       3.452e-01          -0.198           0.144          -0.970       5.509e-02          0.6414
 856       6.057e+00       1.149e+01       3.721e-01          -0.380           0.232          -0.896       3.711e-02          0.7221
 857       6.009e+00       1.149e+01       4.093e-01          -0.795           0.429          -0.429       2.584e-02         -0.7620
 858       6.009e+00       1.149e+01       4.531e-01          -0.794           0.399           0.458       2.542e-02         -4.3628
 859       6.057e+00       1.149e+01       4.889e-01          -0.359           0.161           0.919       3.656e-02         -4.6577
 860       6.150e+00       1.149e+01       5.126e-01          -0.164           0.060           0.985       5.451e-02         -2.4429
 861       6.284e+00       1.149e+01       5.287e-01          -0.085           0.020           0.996       7.091e-02         -1.5608
 862       6.450e+00       1.149e+01       5.384e-01          -0.036          -0.004           0.999       8.356e-02         -1.1551
 863       6.638e+00       1.149e+01       5.407e-01           0.009          -0.026           1.000       9.155e-02         -0.9167
 864       6.838e+00       1.149e+01       5.340e-01           0.058          -0.048           0.997       9.447e-02         -0.7242
 865       7.038e+00       1.149e+01       5.180e-01           0.102          -0.066           0.993       9.212e-02         -0.5399
 866       7.226e+00       1.149e+01       4.953e-01           0.138          -0.081           0.987       8.446e-02         -0.3674
 867       7.392e+00       1.149e+01       4.698e-01           0.168          -0.092           0.982       7.179e-02         -0.2187
 868       7.525e+00       1.149e+01       4.456e-01           0.191          -0.100           0.976       5.476e-02         -0.0963
 869       7.619e+00       1.149e+01       4.265e-01           0.212          -0.106           0.971       3.436e-02         -0.0326
 870       7.667e+00       1.149e+01       4.131e-01           0.413          -0.159           0.897       1.247e-02          0.1827
Strip 34
 871       7.784e+00       1.192e+01       4.290e-01           0.016           0.046          -0.999       8.940e-03          0.0979
 872       7.739e+00       1.192e+01       4.325e-01          -0.108           0.080          -0.991       2.616e-02          0.2586
 873       7.651e+00       1.192e+01       4.348e-01           0.026           0.041          -0.999       4.162e-02          0.3231
 874       7.526e+00       1.192e+01       4.227e-01           0.148           0.002          -0.989       5.545e-02          0.2751
 875       7.371e+00       1.192e+01       3.946e-01           0.203          -0.018          -0.979       6.631e-02          0.1671
 876       7.194e+00       1.192e+01       3.618e-01           0.165          -0.006          -0.986       7.216e-02          0.0556
 877       7.007e+00       1.192e+01       3.384e-01           0.083           0.024          -0.996       7.353e-02          0.0288
 878       6.819e+00       1.192e+01       3.297e-01           0.009           0.053          -0.999       7.116e-02          0.0979
 879       6.643e+00       1.192e+01       3.334e-01          -0.054           0.078          -0.995       6.504e-02          0.2269
 880       6.487e+00       1.192e+01       3.460e-01          -0.113           0.104          -0.988       5.535e-02          0.3981
 881       6.362e+00       1.192e+01       3.649e-01          -0.194           0.142          -0.971       4.270e-02          0.6101
 882       6.274e+00       1.192e+01       3.898e-01          -0.377           0.231          -0.897       2.874e-02          0.7285
 883       6.229e+00       1.192e+01       4.245e-01          -0.795           0.429          -0.428       2.001e-02         -0.6256
 884       6.229e+00       1.191e+01       4.656e-01          -0.794           0.399           0.458       1.977e-02         -4.0777
 885       6.274e+00       1.191e+01       4.993e-01          -0.361           0.163           0.918       2.844e-02         -4.4132
 886       6.362e+00       1.191e+01       5.219e-01          -0.168           0.062           0.984       4.236e-02         -2.3229
 887       6.488e+00       1.191e+01       5.375e-01          -0.089           0.022           0.996       5.507e-02         -1.4799
 888       6.643e+00       1.191e+01       5.472e-01          -0.040          -0.002           0.999       6.487e-02         -1.0899
 889       6.820e+00       1.191e+01       5.501e-01           0.005          -0.024           1.000       7.106e-02         -0.8611
 890       7.007e+00       1.191e+01       5.445e-01           0.054          -0.046           0.997       7.331e-02         -0.6782
 891       7.195e+00       1.191e+01       5.303e-01           0.098          -0.065           0.993       7.146e-02         -0.5050
 892       7.371e+00       1.191e+01       5.097e-01           0.135          -0.080           0.988       6.551e-02         -0.3444
 893       7.527e+00       1.191e+01       4.864e-01           0.164          -0.090           0.982       5.567e-02         -0.2073
 894       7.652e+00       1.191e+01       4.642e-01           0.187          -0.099           0.977       4.246e-02         -0.0946
 895       7.740e+00       1.191e+01       4.467e-01           0.208          -0.105           0.972       2.664e-02         -0.0388
 896       7.785e+00       1.192e+01       4.343e-01           0.410          -0.158           0.898       9.662e-03          0.1748
Strip 35
 897       7.880e+00       1.226e+01       4.464e-01           0.020           0.045          -0.999       6.642e-03          0.0614
 898       7.837e+00       1.226e+01       4.496e-01          -0.105           0.079          -0.991       1.942e-02          0.2128
 899       7.754e+00       1.226e+01       4.514e-01           0.030           0.040          -0.999       3.092e-02          0.2715
 900       7.635e+00       1.226e+01       4.396e-01           0.151           0.000          -0.988       4.122e-02          0.2218
 901       7.488e+00       1.226e+01       4.124e-01           0.206          -0.020          -0.978       4.931e-02          0.1132
 902       7.321e+00       1.226e+01       3.807e-01           0.168          -0.008          -0.986       5.365e-02         -0.0009
 903       7.144e+00       1.226e+01       3.580e-01           0.087           0.022          -0.996       5.464e-02         -0.0333
 904       6.966e+00       1.226e+01       3.491e-01           0.012           0.051          -0.999       5.287e-02          0.0302
 905       6.799e+00       1.226e+01       3.520e-01          -0.050           0.077          -0.996       4.830e-02          0.1565
 906       6.652e+00       1.226e+01       3.634e-01          -0.110           0.103          -0.989       4.109e-02          0.3309
 907       6.534e+00       1.226e+01       3.809e-01          -0.191           0.140          -0.971       3.169e-02          0.5546
 908       6.451e+00       1.226e+01       4.041e-01          -0.374           0.229          -0.898       2.131e-02          0.7254
 909       6.408e+00       1.226e+01       4.368e-01          -0.795           0.429          -0.428       1.483e-02         -0.4414
 910       6.408e+00       1.226e+01       4.756e-01          -0.794           0.399           0.459       1.472e-02         -3.6852
 911       6.451e+00       1.226e+01       5.077e-01          -0.364           0.164           0.917       2.117e-02         -4.0771
 912       6.534e+00       1.226e+01       5.294e-01          -0.171           0.064           0.983       3.149e-02         -2.1483
 913       6.652e+00       1.226e+01       5.446e-01          -0.092           0.024           0.995       4.093e-02         -1.3573
 914       6.799e+00       1.226e+01       5.543e-01          -0.044          -0.001           0.999       4.820e-02         -0.9895
 915       6.966e+00       1.226e+01       5.577e-01           0.001          -0.023           1.000       5.279e-02         -0.7775
 916       7.144e+00       1.226e+01       5.530e-01           0.050          -0.045           0.998       5.444e-02         -0.6136
 917       7.321e+00       1.226e+01       5.402e-01           0.094          -0.064           0.994       5.306e-02         -0.4613
 918       7.488e+00       1.226e+01       5.214e-01           0.131          -0.078           0.988       4.863e-02         -0.3214
 919       7.636e+00       1.226e+01       4.998e-01           0.160          -0.089           0.983       4.132e-02         -0.2040
 920       7.754e+00       1.226e+01       4.793e-01           0.184          -0.098           0.978       3.152e-02         -0.1074
 921       7.837e+00       1.226e+01       4.630e-01           0.205          -0.105           0.973       1.977e-02         -0.0641
 922       7.880e+00       1.226e+01       4.515e-01           0.407          -0.158           0.900       7.165e-03          0.1489
Strip 36
 923       7.951e+00       1.252e+01       4.596e-01           0.023           0.044          -0.999       4.572e-03         -0.0459
 924       7.910e+00       1.252e+01       4.625e-01          -0.102           0.078          -0.992       1.336e-02          0.0900
 925       7.831e+00       1.252e+01       4.640e-01           0.033           0.039          -0.999       2.129e-02          0.1436
 926       7.718e+00       1.252e+01       4.523e-01           0.154          -0.000          -0.988       2.839e-02          0.1038
 927       7.577e+00       1.252e+01       4.259e-01           0.209          -0.021          -0.978       3.397e-02          0.0120
 928       7.417e+00       1.252e+01       3.951e-01           0.171          -0.009          -0.985       3.696e-02         -0.0880
 929       7.247e+00       1.252e+01       3.728e-01           0.090           0.021          -0.996       3.763e-02         -0.1171
 930       7.077e+00       1.252e+01       3.637e-01           0.015           0.050          -0.999       3.639e-02         -0.0629
 931       6.917e+00       1.252e+01       3.660e-01          -0.047           0.075          -0.996       3.324e-02          0.0477
 932       6.777e+00       1.252e+01       3.766e-01          -0.107           0.101          -0.989       2.827e-02          0.2125
 933       6.663e+00       1.252e+01       3.929e-01          -0.188           0.139          -0.972       2.179e-02          0.4456
 934       6.584e+00       1.252e+01       4.149e-01          -0.372           0.228          -0.900       1.464e-02          0.6837
 935       6.543e+00       1.252e+01       4.461e-01          -0.795           0.429          -0.428       1.019e-02         -0.2262
 936       6.543e+00       1.252e+01       4.832e-01          -0.794           0.399           0.459       1.015e-02         -3.1787
 937       6.584e+00       1.252e+01       5.141e-01          -0.366           0.165           0.916       1.459e-02         -3.6321
 938       6.663e+00       1.252e+01       5.351e-01          -0.174           0.065           0.983       2.170e-02         -1.9023
 939       6.777e+00       1.252e+01       5.499e-01          -0.095           0.025           0.995       2.819e-02         -1.1815
 940       6.917e+00       1.251e+01       5.597e-01          -0.047           0.001           0.999       3.319e-02         -0.8529
 941       7.077e+00       1.251e+01       5.634e-01          -0.002          -0.021           1.000       3.634e-02         -0.6778
 942       7.247e+00       1.251e+01       5.595e-01           0.047          -0.044           0.998       3.747e-02         -0.5524
 943       7.417e+00       1.252e+01       5.477e-01           0.091          -0.062           0.994       3.651e-02         -0.4391
 944       7.577e+00       1.252e+01       5.302e-01           0.128          -0.077           0.989       3.346e-02         -0.3370
 945       7.718e+00       1.252e+01       5.100e-01           0.158          -0.088           0.984       2.843e-02         -0.2548
 946       7.831e+00       1.252e+01       4.907e-01           0.181          -0.097           0.979       2.168e-02         -0.1887
 947       7.911e+00       1.252e+01       4.753e-01           0.202          -0.104           0.974       1.360e-02         -0.1677
 948       7.952e+00       1.252e+01       4.644e-01           0.405          -0.157           0.901       4.926e-03          0.0483
Strip 37
 949       8.000e+00       1.269e+01       4.684e-01           0.025           0.044          -0.999       2.673e-03         -0.5481
 950       7.960e+00       1.269e+01       4.711e-01          -0.099           0.078          -0.992       7.811e-03         -0.4457
 951       7.883e+00       1.269e+01       4.724e-01           0.035           0.038          -0.999       1.245e-02         -0.3398
 952       7.773e+00       1.269e+01       4.608e-01           0.156          -0.001          -0.988       1.661e-02         -0.2442
 953       7.636e+00       1.269e+01       4.350e-01           0.211          -0.021          -0.977       1.987e-02         -0.2001
 954       7.481e+00       1.269e+01       4.047e-01           0.173          -0.009          -0.985       2.162e-02         -0.2186
 955       7.316e+00       1.270e+01       3.827e-01           0.092           0.020          -0.996       2.201e-02         -0.2138
 956       7.152e+00       1.270e+01       3.736e-01           0.018           0.049          -0.999       2.128e-02         -0.1624
 957       6.997e+00       1.270e+01       3.755e-01          -0.045           0.074          -0.996       1.943e-02         -0.0825
 958       6.860e+00       1.270e+01       3.854e-01          -0.104           0.100          -0.989       1.652e-02          0.0353
 959       6.750e+00       1.269e+01       4.010e-01          -0.186           0.138          -0.973       1.273e-02          0.2314
 960       6.673e+00       1.269e+01       4.221e-01          -0.371           0.228          -0.900       8.550e-03          0.5114
 961       6.633e+00       1.269e+01       4.523e-01          -0.795           0.429          -0.428       5.951e-03         -0.0775
 962       6.633e+00       1.269e+01       4.883e-01          -0.794           0.399           0.459       5.941e-03         -2.5603
 963       6.673e+00       1.269e+01       5.183e-01          -0.368           0.166           0.915       8.543e-03         -3.0394
 964       6.750e+00       1.269e+01       5.389e-01          -0.176           0.066           0.982       1.269e-02         -1.5593
 965       6.860e+00       1.269e+01       5.535e-01          -0.097           0.026           0.995       1.649e-02         -0.9601
 966       6.997e+00       1.269e+01       5.633e-01          -0.049           0.002           0.999       1.941e-02         -0.7176
 967       7.152e+00       1.269e+01       5.672e-01          -0.004          -0.020           1.000       2.125e-02         -0.6060
 968       7.317e+00       1.269e+01       5.638e-01           0.045          -0.043           0.998       2.190e-02         -0.5337
 969       7.481e+00       1.269e+01       5.527e-01           0.089          -0.062           0.994       2.134e-02         -0.4881
 970       7.637e+00       1.269e+01       5.361e-01           0.126          -0.077           0.989       1.955e-02         -0.4938
 971       7.773e+00       1.269e+01       5.168e-01           0.155          -0.088           0.984       1.661e-02         -0.5608
 972       7.883e+00       1.269e+01       4.983e-01           0.179          -0.096           0.979       1.267e-02         -0.6460
 973       7.960e+00       1.269e+01       4.836e-01           0.200          -0.103           0.974       7.947e-03         -0.7207
 974       8.000e+00       1.269e+01       4.731e-01           0.404          -0.157           0.901       2.877e-03         -0.5052
Strip 38
 975       8.024e+00       1.278e+01       4.728e-01           0.026           0.043          -0.999       8.794e-04         -1.1819
 976       7.985e+00       1.278e+01       4.755e-01          -0.098           0.077          -0.992       2.569e-03         -1.1445
 977       7.909e+00       1.278e+01       4.767e-01           0.036           0.038          -0.999       4.094e-03         -0.9934
 978       7.800e+00       1.278e+01       4.651e-01           0.157          -0.002          -0.988       5.463e-03         -0.7206
 979       7.666e+00       1.278e+01       4.395e-01           0.212          -0.022          -0.977       6.538e-03         -0.4744
 980       7.513e+00       1.278e+01       4.095e-01           0.174          -0.010          -0.985       7.113e-03         -0.3493
 981       7.351e+00       1.278e+01       3.877e-01           0.093           0.020          -0.995       7.239e-03         -0.2775
 982       7.189e+00       1.278e+01       3.785e-01           0.019           0.048          -0.999       6.999e-03         -0.2155
 983       7.036e+00       1.278e+01       3.802e-01          -0.044           0.074          -0.996       6.391e-03         -0.1546
 984       6.902e+00       1.278e+01       3.898e-01          -0.103           0.100          -0.990       5.433e-03         -0.0750
 985       6.794e+00       1.278e+01       4.050e-01          -0.185           0.138          -0.973       4.186e-03          0.0719
 986       6.718e+00       1.278e+01       4.258e-01          -0.370           0.227          -0.901       2.811e-03          0.3357
 987       6.679e+00       1.278e+01       4.554e-01          -0.795           0.429          -0.428       1.956e-03          0.0571
 988       6.679e+00       1.278e+01       4.909e-01          -0.794           0.399           0.459       1.955e-03         -1.8465
 989       6.718e+00       1.278e+01       5.205e-01          -0.369           0.167           0.915       2.812e-03         -2.3595
 990       6.794e+00       1.278e+01       5.408e-01          -0.177           0.067           0.982       4.177e-03         -1.2167
 991       6.902e+00       1.278e+01       5.553e-01          -0.099           0.027           0.995       5.424e-03         -0.7884
 992       7.036e+00       1.278e+01       5.651e-01          -0.050           0.002           0.999       6.384e-03         -0.6340
 993       7.189e+00       1.278e+01       5.691e-01          -0.005          -0.020           1.000       6.988e-03         -0.5612
 994       7.351e+00       1.278e+01       5.659e-01           0.044          -0.042           0.998       7.204e-03         -0.5108
 995       7.514e+00       1.278e+01       5.552e-01           0.088          -0.061           0.994       7.018e-03         -0.4942
 996       7.666e+00       1.278e+01       5.390e-01           0.125          -0.076           0.989       6.431e-03         -0.5708
 997       7.801e+00       1.278e+01       5.202e-01           0.154          -0.087           0.984       5.463e-03         -0.7923
 998       7.909e+00       1.278e+01       5.021e-01           0.178          -0.096           0.979       4.166e-03         -1.1047
 999       7.985e+00       1.278e+01       4.877e-01           0.199          -0.103           0.975       2.613e-03         -1.3504
1000       8.024e+00       1.278e+01       4.774e-01           0.403          -0.157           0.902       9.457e-04         -1.1862










